<!-- real_traffic.sumocfg -->
<configuration>
    <input>
        <net-file value="real_map.net.xml"/>
        <route-files value="real_routes.rou.xml"/>
    </input>
    <time>
        <begin value="0"/>
        <end value="1000"/>
    </time>
</configuration>
