<?xml version="1.0" encoding="UTF-8"?>

<!-- generated on 2025-04-14 11:58:47.697193 by randomTrips.py v1_22_0+0002-63e50f52594
<configuration>
    <net-file value="real_map.net.xml"/>
    <output-trip-file value="real_routes.rou.xml"/>
    <route-file value="real_routes.rou.xml"/>
</configuration>
-->

<!-- generated on 2025-04-14 11:58:46 by Eclipse SUMO duarouter Version 1.22.0
<duarouterConfiguration xmlns:xsi="http://www.w3.org/2001/XMLSchema-instance" xsi:noNamespaceSchemaLocation="http://sumo.dlr.de/xsd/duarouterConfiguration.xsd">

    <input>
        <net-file value="real_map.net.xml"/>
        <route-files value="real_routes.rou.xml"/>
    </input>

    <output>
        <output-file value="real_routes.rou.xml"/>
        <alternatives-output value="NUL"/>
    </output>

    <time>
        <begin value="0"/>
        <end value="3600"/>
    </time>

    <report>
        <no-warnings value="true"/>
        <ignore-errors value="true"/>
        <no-step-log value="true"/>
    </report>

</duarouterConfiguration>
-->

<routes xmlns:xsi="http://www.w3.org/2001/XMLSchema-instance" xsi:noNamespaceSchemaLocation="http://sumo.dlr.de/xsd/routes_file.xsd">

    <vehicle id="0" depart="0.00">
        <route edges="26283801#0 131388427#0 157571649#9 157571649#10 157571649#11 173559972#4 173559972#5 173559968 173559971 173561260 26283761#0 26283761#1 26283761#2 72099280#0 72099280#1 72099280#2 72099280#3 72099280#4 72099280#5 72099280#6 242172703 328758433#0 328758433#1 328758433#2 328758433#3 328758433#4 1150927563#0 1150927563#1 542070642 464465222 544761382#0 544761382#1 544761382#2 1205167665 1205167664 544761380#0 544761380#1 1110192331 544761378#0 544761378#1 542070647#0 542070647#1 654382215 107215079#3 -1113076998#2 -1113076998#1"/>
    </vehicle>
    <vehicle id="1" depart="1.00">
        <route edges="107215083#3 107215083#4 107215083#5 1232642395 359476589 359476587#0 359476587#1 359476587#2 359476587#3 508711055#0 508711055#1 508711055#2 52063523#2 52063523#3 52063523#4 52063523#5 52063523#6 554901329 1106310175 362900185 760889232#0 760889232#1 1148395510 1148395508 107215079#0 107215079#1 107215079#2 107215079#3 107215079#4 544761377#0 544761377#1 544761379 544761381 1110192330 1205167663 1205167666 544761383#0 544761383#1 542070645 1150927562#0 1150927562#1 1150927562#2 542070643#0 542070643#1 542070643#2 542070643#3 542070643#4 542070643#5 224621537#0 224621537#1 224621537#2 224621537#3 484510041#0 1346336050#0 1346336050#1 1346336050#2 1350604735 484510040#0 484510040#1 484510040#2 484510040#3 484510040#4 484510040#5 484510040#6 484510040#7 484510040#8 484510040#9 484510040#10 -688192176 -796846456#2 -796846456#1 -796846456#0"/>
    </vehicle>
    <vehicle id="3" depart="3.00">
        <route edges="542070643#1 542070643#2 542070643#3 542070643#4 542070643#5 224621537#0 224621537#1 224621537#2 224621537#3 484510041#0 484510041#1 484510041#2 484510041#3 484510041#4 484510041#5 72099280#0 72099280#1 -1093111120#1 -1093111120#0 -695042712#2 -695042712#1 -695042712#0 172903812#5 172903812#6 173559976 -173559971 173559969 173559972#7 173559972#0 173559974 -363597276#1 -363597276#0 -363597273 -173561341#1"/>
    </vehicle>
    <vehicle id="4" depart="4.00">
        <route edges="1227562842#2 1125542418 1125542419#0 1125542419#1 1125542419#2 1125542419#3 1125542419#4 1125542419#5 1304119370#0 1304119370#1 1304119370#2 1304119370#3 1304119370#4 764406991#0 764406991#1 764406991#2 -172955372#7 -172955372#6 -172955372#5 -172955372#4 -172955372#3 -172955372#2 -172955372#1 -172955372#0 -1276784689 1276784690#0 1276784690#1 1276784690#2 1015024215 1015024218 27007398#0 27007398#1 27007398#2 27007398#3 27007398#4 27007398#5 27007398#6 27007398#7 27007398#8 27007398#9 27007398#10 27007398#11 27007398#12 27007398#13 27007398#14 27007398#15 27007398#16 27007398#17 27007398#18 36853688#0 36853688#1 36853688#2 36853688#3 36853688#4 36853688#5 36853688#6 36853688#7 36853688#8 36853688#9 36853688#10 36853688#11 36853688#12 -112028496#7 -112028496#6 -112028496#5 -112028496#4 -112028496#3 -112028496#2"/>
    </vehicle>
    <vehicle id="5" depart="5.00">
        <route edges="-484510040#9 -484510040#8 -484510040#7 -484510040#6 -484510040#5 -484510040#4 -484510040#3 -484510040#2 -484510040#1 -484510040#0 1227534098#0 1227534098#1 1227534098#2 484510039 484510041#0 484510041#1 484510041#2 484510041#3 484510041#4 484510041#5 72099280#0 72099280#1 72099280#2 72099280#3 72099280#4 72099280#5 72099280#6 242172703 1370353700 542070644#8 1158621923#0 1158621923#1 1158621923#2 1158621923#3 143240402#0 143240402#1 143240402#2 143240402#3 143240402#4 143240402#5 143240402#6 143240402#7 143240402#8 143240402#9 143240402#10 143240402#11 143240402#12"/>
    </vehicle>
    <vehicle id="6" depart="6.00">
        <route edges="-1106057235#0 1102326203#0 1102326203#1 1102326203#2 1102326203#3 1102326203#4 1102326203#5 26283651#0 26283651#1 26283651#2 26283651#3 26283651#4 26283651#5 26283651#6 26283651#7 26283651#8 1124838026 1124838025#0 1124838025#1 1124838025#2 1124838025#3 1124838025#4 1124838025#5 1124838025#6 1124838025#7 766406224#0 766406224#1 766406224#2 766406224#3 323813903#0 323813903#1 323813903#2 323813903#3 323813903#4 323813903#5 1148395507 1148395510 1148395508 107215079#0 107215079#1 107215079#2 107215079#3 107215079#4 544761377#0 544761377#1 544761379 544761381 1110192330 1205167663 1205167666 544761383#0 544761383#1 542070645 1150927562#0 1150927562#1 1150927562#2 542070643#0 542070643#1 542070643#2 542070643#3 542070643#4 542070643#5 224621537#0 224621537#1 224621537#2 224621537#3 484510041#0 1346336050#0 1346336050#1 1346336050#2 1350604735 484510040#0 484510040#1 484510040#2 484510040#3 484510040#4 484510040#5 484510040#6 484510040#7 484510040#8 484510040#9 -484510040#9"/>
    </vehicle>
    <vehicle id="7" depart="7.00">
        <route edges="27007398#16 27007398#17 27007398#18 36853688#0 36853688#1 36853688#2 36853688#3 36853688#4 36853688#5 36853688#6 36853688#7 36853688#8 36853688#9 36853688#10 36853688#11 36853688#12 -112028496#7 -112028496#6 -112028496#5 -112028496#4 -112028496#3 -112028496#2 -112028496#1 -112028496#0 1112419802#4 1112419801#0 1112419801#1 1112419801#2 1112419801#3 1112419801#4 638541495#0 638541495#1 638541495#2 638541495#3 638541495#4 638541495#5 638541495#6 638541495#7 638541495#8 638541495#9 1278555476 172947338#0 172947338#1 172947338#2 172947338#3 172947338#4 172947338#5 464465215 224621537#0 224621537#1 224621537#2 224621537#3 484510041#0 1346336050#0 1346336050#1 1346336050#2 1350604735 484510040#0 -796846472#1 -796846472#0 173435223#1"/>
    </vehicle>
    <vehicle id="8" depart="8.00">
        <route edges="-484510360 484510041#3 484510041#4 484510041#5 72099280#0 72099280#1 72099280#2 72099280#3 72099280#4 72099280#5 72099280#6 242172703 328758433#0 328758433#1 328758433#2 328758433#3 328758433#4 1150927563#0 1150927563#1 542070642 464465222 544761382#0 544761382#1 544761382#2 1205167665 1205167664 544761380#0 544761380#1 1110192331 544761378#0 544761378#1 542070647#0 542070647#1 542070647#2 542070647#3 359476590#0 359476590#1 1196514126#0 1196514126#1 1196514126#2 1196514126#3 161416663#0 161416663#1 1101945532 1101945530#0 1101945530#1 1101945530#2 1373661996 46728567#0 46728567#1 46728567#2 46728567#3 46728567#4 23029715#0 23029715#1 23029715#2 23029715#3 23029715#4 23029715#5 1124838025#6 1124838025#7 1049316087#0 1049316087#1 1049316087#2 -1093604005#1 -1093604005#0 -23029699#5 -23029699#4 -23029699#3 -23029699#2 23029699#2"/>
    </vehicle>
    <vehicle id="9" depart="9.00">
        <route edges="45308260#9 45308260#10 23029705#0 23029705#1 23029705#2 23029705#3 23029705#4 23029705#5 23029705#6 1297594197#0 1297594197#1 26283651#2 26283651#3 26283651#4 26283651#5 26283651#6 26283651#7 26283651#8 1124838026 1124838025#0 1124838025#1 1124838025#2 1124838025#3 1124838025#4 1124838025#5 1124838025#6 1124838025#7 30332854#0 30332854#1 30332854#2 30332854#3 1101945532 766406223#0 766406223#1 766406223#2 1109912029 36913434#0 36913434#1 36913434#2 36913434#3 36913434#4 -1066895467#2"/>
    </vehicle>
    <vehicle id="10" depart="10.00">
        <route edges="45308260#2 45308260#3 45308260#4 -45308260#4 -45308260#3 -45308260#2 -45308260#1 -45308260#0 1356841810#2 112657837#0 112657837#1 112657837#2 112657837#3 112657837#4 112657837#5 112657837#6 23029701#12 23029701#13 23029701#14 23029701#15 23029701#16 23029701#17 23029701#18 23029701#19 23029701#20 461556535#3 461556535#4 461556535#5 461556535#6 461556535#7 461556535#8 461556535#9 461556535#10 461556535#11 461556535#12 461556535#13 461556535#14 1096797091#0 1096797091#1 1096797091#2 1096797091#3 1096797091#4 763290547#0 763290547#1 763290547#2 763290547#3 763290547#4 763290547#5 764406991#0 764406991#1 764406991#2 -172955372#7 -172955372#6 -172955372#5 -172955372#4 -172955372#3 -172955372#2 -172955372#1 -172955372#0 -1276784689 1276784690#0 1276784690#1 1276784690#2 1015024215 1015024218 27007398#0 27007398#1 27007398#2 27007398#3 27007398#4 27007398#5 27007398#6 27007398#7 27007398#8 27007398#9 27007398#10 27007398#11 27007398#12 27007398#13 27007398#14 27007398#15 27007398#16 27007398#17 27007398#18 36853688#0 36853688#1 36853688#2 36853688#3 27946077#0 27946077#1 27946077#2 27946077#3 27946077#4 27946077#5 27946077#6 27946077#7 180375723#0 180375723#1 180375723#2 180375723#3 180375723#4 180375723#5 180375723#6 180375723#7 328837819#0 328837819#1"/>
    </vehicle>
    <vehicle id="11" depart="11.00">
        <route edges="112028496#5 112028496#6 112028496#7 -112028496#7 -112028496#6 -112028496#5 -112028496#4 -112028496#3 -112028496#2 -112028496#1 -112028496#0 1112419802#4 1112419801#0 1112419801#1 1112419801#2 1112419801#3 1112419801#4 638541495#0 638541495#1 638541495#2 638541495#3 638541495#4 638541495#5 638541495#6 638541495#7 638541495#8 638541495#9 1278555476 1166322819#0 1166322819#1 1166322819#2 1166322819#3 1166322820#0 1166322820#1 38522039 1166322824 1166322823#0 1166322823#1 325833356#0 325833356#1 325833356#2 763293421 638541502#0 638541502#1 325833350#0 325833350#1 325833350#2 325833350#3 325833350#4 325833350#5 325833350#6 325833350#7 325833350#8 325833350#9 325833350#10 1015024219 1015024216#0 1015024216#1 1276784689 172955372#0 1125692661 -37763929#2 328839321 28126801#11 37763917#0 37763917#1 -37763917#1"/>
    </vehicle>
    <vehicle id="12" depart="12.00">
        <route edges="745504680#1 26283723#6 23515741#0 23515741#1 23515741#2 23515741#3 23515741#4 23515741#5 107215079#0 107215079#1 107215079#2 -654382215 542070647#2 542070647#3 359476590#0 359476590#1 1196514126#0 1196514126#1 1196514126#2 1196514128#0 1196514128#1 1151679464#0 1151679464#1 1151679464#2 147859357 1075317012 1125542418 1125542419#0 1125542419#1 1125542419#2 1125542419#3 1125542419#4"/>
    </vehicle>
    <vehicle id="13" depart="13.00">
        <route edges="-172955372#1 172955372#1 172955372#2 172955372#3 172955372#4 172955372#5 172955372#6 172955372#7 764406991#3 23029284#0 23029284#1 23029284#2 23029284#3 23029284#4 23029284#5 23029284#6 23029284#7 23029284#8 23029284#9 23029284#10 23029284#11 781786336#0 781786336#1 781786336#2 763290548#0 763290548#1 763290548#2 763290548#3 763290548#4 763290548#5 763290548#6 763290548#7 763290548#8 1307397842#0 1307397842#1 1307397842#2 1307397842#3 1307397842#4 23029696#0 23029696#1 23029696#2 23029696#3 23029696#4 23029696#5 23029696#6 23029696#7 23029696#8 23029696#9 1102326203#0 1102326203#1 1102326203#2 1102326203#3 1102326203#4 1102326203#5 26283651#0 26283651#1 26283651#2 26283651#3 26283651#4 26283651#5 26283651#6 26283651#7 26283651#8 1124838026 1124838025#0 1124838025#1 1124838025#2 1124838025#3 1124838025#4 1124838025#5 -23029715#5 -23029715#4 -23029715#3 -23029715#2 -23029715#1 -23029715#0 46728567#5 46728567#6 -226972108#2 -226972108#1"/>
    </vehicle>
    <vehicle id="14" depart="14.00">
        <route edges="48166762#3 48166762#4 48166762#5 48166762#6 48166762#7 48166762#8 48166762#9 48166762#10 48166762#11 48166762#12 48166762#13 48166762#14 48166762#15 48166762#16 48166762#17 48166762#18 48166762#19 48166762#20 48166762#21 48166762#22 1093604004 1049316088#0 1049316088#1 1049316088#2 1308654687#0 1308654687#1 1308654687#2 161416663#0 161416663#1 1101945532 1101945530#0 1101945530#1 1101945530#2 1373661996 46728567#0 46728567#1 46728567#2 46728567#3 46728567#4 46728567#5 46728567#6 46728567#7 46728567#8 46728567#9 46728567#10 23029705#0 23029705#1 23029705#2 23029705#3 23029705#4"/>
    </vehicle>
    <vehicle id="15" depart="15.00">
        <route edges="45308260#5 45308260#6 45308260#7 45308260#8 45308260#9 45308260#10 23029705#0 23029705#1 23029705#2 23029705#3 23029705#4 23029705#5 23029705#6 1297594197#0 1297594197#1 26283651#2 26283651#3 26283651#4 26283651#5 26283651#6 26283651#7 26283651#8 1124838026 1124838025#0 1124838025#1 1124838025#2 1124838025#3 1124838025#4 1124838025#5 1124838025#6 1124838025#7 30332854#0 30332854#1 30332854#2 30332854#3 1101945532 766406223#0 766406223#1 766406223#2 1109912029 760700374 107215083#0 107215083#1 107215083#2 107215083#3 107215083#4 107215083#5 1232642395 359476589 359476587#0 359476587#1 359476587#2 359476587#3 760700372#0 760700372#1 503401204#0 503401204#1 503401204#2 503401204#3 503401204#4 503401204#5 1148408385 1148408386#0 1148408386#1 363452629#0 363452629#1"/>
    </vehicle>
    <vehicle id="16" depart="16.00">
        <route edges="172903799 172903814#0 172903814#1 172903814#2 172903814#3 172903814#4 172903814#5 1302996846 172903812#0 172903812#1 172903812#2 172903812#3 172903812#4 172903812#5 172903812#6 1066854637 26283761#0 26283761#1 173560329#0 173560329#1 173560329#2 173560329#3 173560329#4 173560329#5 173560329#6 1182435824#0 1182435824#1 1182435824#2 1182435824#3 91890605#0 91890605#1 91890605#2 91890605#3 91890605#4 91890605#5 1332594978 36967442#0 36967442#1 36967442#2 36967442#3 36967442#4 36967442#5 36967442#6 36967442#7 1101271051 1278555476 1166322819#0 1166322819#1 1166322819#2 1166322819#3 1166322820#0 1166322820#1 38522039 1166322824 1166322823#0 1166322823#1 325833356#0 325833356#1 325833356#2 763293421 638541502#0 638541502#1 325833350#0 325833350#1 325833350#2 325833350#3 325833350#4 325833350#5 325833350#6 325833350#7 325833350#8 325833350#9 325833350#10 1015024219 1015024216#0 1015024216#1 1276784689 172955372#0 172955372#1 172955372#2 172955372#3 172955372#4 172955372#5 172955372#6 172955372#7 764406991#3 23029284#0 23029284#1 23029284#2 23029284#3 23029284#4 23029284#5 23029284#6 23029284#7 23029284#8 23029284#9 23029284#10 23029284#11 781786336#0 781786336#1 781786336#2 763290548#0 763290548#1 763290548#2 763290548#3 763290548#4 763290548#5 763290548#6 763290548#7 763290548#8 1096797091#0 1096797091#1 1096797091#2 1096797091#3 1096797091#4 763290547#0 763290547#1 763290547#2"/>
    </vehicle>
    <vehicle id="17" depart="17.00">
        <route edges="1148421490#2 719664029#0 719664029#1 719664029#2 1112419802#0 1112419802#1 1112419802#2 1112419802#3 1112419802#4 1112419801#0 1112419801#1 1112419801#2 1112419801#3 1112419801#4 638541495#0 638541495#1 638541495#2 638541495#3 638541495#4 638541495#5 638541495#6 638541495#7 638541495#8 638541495#9 1278555476 172947338#0 172947338#1 172947338#2 172947338#3 172947338#4 172947338#5 464465215 224621537#0 224621537#1 224621537#2 224621537#3 484510041#0 484510041#1 484510041#2 484510041#3 484510041#4 484510041#5 72099280#0 72099280#1 -1093111120#1 -1093111120#0 -695042712#2 -695042712#1 -695042712#0 172903812#5 172903812#6 1066854637 26283761#0 26283761#1 173560329#0 173560329#1"/>
    </vehicle>
    <vehicle id="19" depart="19.00">
        <route edges="484510041#4 484510359 173560329#2 173560329#3 173560329#4 173560329#5 173560329#6 1182435824#0 1182435824#1 1182435824#2 1182435824#3 91890605#0 91890605#1 91890605#2 91890605#3 91890605#4 91890605#5 1332594978 36967442#0 36967442#1 36967442#2 36967442#3 36967442#4 36967442#5 36967442#6 36967442#7 1101271051 1278555476 1166322819#0 1166322819#1 1166322819#2 1166322819#3 1166322820#0 1166322820#1 38522039 1166322824 1166322823#0 1166322823#1 325833356#0 325833356#1 325833356#2 763293421 638541502#0 638541502#1 325833350#0 325833350#1 325833350#2 325833350#3 325833350#4 325833350#5 325833350#6 325833350#7 325833350#8 325833350#9 325833350#10 1015024219 1015024216#0 1015024216#1 1276784689 172955372#0 172955372#1 172955372#2 172955372#3 172955372#4 172955372#5 172955372#6 172955372#7 764406991#3 23029284#0 23029284#1 23029284#2 23029284#3 23029284#4 23029284#5 23029284#6 23029284#7"/>
    </vehicle>
    <vehicle id="20" depart="20.00">
        <route edges="328837819#1 553253474 -553253474 -328837819#1 -328837819#0 180375723#8 180375723#9 180375723#10 638541495#5 638541495#6 638541495#7 638541495#8 638541495#9 1278555476 1166322819#0 1166322819#1 1166322819#2 1166322819#3 1166322820#0 1166322820#1 38522039 1166322824 1166322823#0 1166322823#1 325833356#0 325833356#1 325833356#2 763293421 638541502#0 638541502#1 325833350#0 325833350#1 325833350#2 325833350#3 325833350#4 325833350#5 325833350#6 325833350#7 325833350#8 325833350#9 325833350#10 1015024219 1015024216#0 1015024216#1 1276784689 172955372#0 172955372#1 172955372#2 172955372#3 172955372#4 172955372#5 172955372#6 172955372#7 764406991#3 23029284#0 23029284#1 23029284#2 23029284#3 23029284#4 23029284#5 23029284#6 23029284#7 23029284#8 23029284#9 23029284#10 23029284#11 781786336#0 781786336#1 781786336#2 763290548#0 763290548#1 763290548#2 763290548#3 763290548#4 763290548#5 763290548#6 763290548#7 763290548#8 1307397842#0 1307397842#1 1307397842#2 1307397842#3 1307397842#4 -1136281758#7 -1136281758#6 -1136281758#5 -1136281758#4 -1136281758#3 -1136281758#2 -1136281758#1 -1136281758#0"/>
    </vehicle>
    <vehicle id="21" depart="21.00">
        <route edges="-603115724#2 -603115724#1 -603115724#0 -484510040#1 -484510040#0 1227534098#0 1227534098#1 1227534098#2 91890605#0 91890605#1 91890605#2 91890605#3 91890605#4 91890605#5 1332594978 52063524 464465211#0 464465211#1 464465211#2 464465211#3 464465211#4 464465211#5 464465211#6 464465222 544761382#0 544761382#1 544761382#2 1205167665 1205167664 544761380#0 544761380#1 1110192331 544761378#0 544761378#1 542070647#0 542070647#1 542070647#2 542070647#3 359476590#0 359476590#1 1196514126#0 1196514126#1 1196514126#2 1196514126#3 161416663#0 161416663#1 1101945532 1101945530#0 1101945530#1 1101945530#2 1373661996 46728567#0 46728567#1 46728567#2 46728567#3 46728567#4 23029715#0 23029715#1 23029715#2 23029715#3 23029715#4 23029715#5 1124838025#6 1124838025#7 1049316087#0 1049316087#1 1049316087#2 -1093604005#1 -1093604005#0 -23029699#5 -23029699#4 -23029699#3 -23029699#2 -23029699#1 -23029699#0 -1106057236#6 -1106057236#5 -1106057236#4 -1106057236#3 -1106057236#2 -1106057236#1 -1106057236#0 -1106057235#1 -1106057235#0 1102326203#0 1102326203#1 1102326203#2 1102326203#3 1102326203#4"/>
    </vehicle>
    <vehicle id="22" depart="22.00">
        <route edges="-131683873#1 -131683873#0 26283723#3 26283723#4 26283723#5 26283723#6 23515741#0 23515741#1 23515741#2 23515741#3 23515741#4 23515741#5 107215079#0 107215079#1 107215079#2 -654382215 542070647#2 542070647#3 1148395512 107215088#0 107215088#1 107215088#2 107215088#3 107215088#4 1148718165#0 1148718165#1 362900184 359476587#0 359476587#1 359476587#2 359476587#3 508711055#0 508711055#1 508711055#2 52063523#2 52063523#3 52063523#4 52063523#5 52063523#6 554901329 1106310175 1195630061#0 1195630061#1 1157218017#0 1157218017#1 1157218017#2 1157218017#3 1039008729#0 1039008729#1"/>
    </vehicle>
    <vehicle id="23" depart="23.00">
        <route edges="-173560330 59263776 172903812#3 172903812#4 172903812#5 172903812#6 1066854637 26283761#0 26283761#1 173560329#0 173560329#1 173560329#2 173560329#3 173560329#4 173560329#5 173560329#6 1182435824#0 1182435824#1 1182435824#2 1182435824#3 91890605#0 91890605#1 91890605#2 91890605#3 91890605#4 91890605#5 1332594978 36967442#0 36967442#1 36967442#2 36967442#3 36967442#4 36967442#5 36967442#6 36967442#7 1101271051 1278555476 1166322819#0 1166322819#1 1166322819#2 1166322819#3 1166322820#0 1166322820#1 38522039 1166322824 1166322823#0 1166322823#1 325833356#0 325833356#1 325833356#2 763293421 638541502#0 638541502#1 325833350#0 325833350#1 325833350#2 325833350#3 325833350#4 325833350#5 325833350#6 325833350#7 325833350#8 325833350#9 325833350#10 1015024219 1015024216#0 1015024216#1 1276784689 172955372#0 172955372#1 172955372#2 172955372#3 172955372#4 172955372#5 172955372#6 172955372#7 764406991#3 23029284#0 23029284#1 23029284#2 23029284#3 23029284#4 23029284#5 23029284#6 23029284#7 23029284#8 23029284#9 23029284#10 23029284#11 781786336#0 781786336#1 781786336#2 763290548#0 763290548#1 763290548#2 763290548#3 763290548#4 763290548#5 763290548#6 763290548#7 763290548#8 1096797091#0 1096797091#1 1096797091#2"/>
    </vehicle>
    <vehicle id="24" depart="24.00">
        <route edges="26283723#2 26283723#3 -45444035#7 -45444035#6 -45444035#5 -45444035#4 -45444035#3 -45444035#2 -45444035#1 -45444035#0 107215077#7 107215077#8 107215077#9 107215077#10 172920283 1092038675#0 1092038675#1 1110192330 1205167663 1205167666 544761383#0 544761383#1 542070645 1150927562#0 1150927562#1 1150927562#2 542070643#0 542070643#1 542070643#2 542070643#3 542070643#4 542070643#5 542070643#6 1332594978 36967442#0 36967442#1 36967442#2 36967442#3 36967442#4 36967442#5 36967442#6 36967442#7 1101271051 1278555476 1166322819#0 1166322819#1 1166322819#2 1166322819#3 1166322820#0 1166322820#1 38522039 1166322824 1166322823#0 1166322823#1 638541500#0 638541500#1 1166571293 1166571294 1148434866"/>
    </vehicle>
    <vehicle id="26" depart="26.00">
        <route edges="107215077#3 107215077#4 107215077#5 107215077#6 107215077#7 1113076998#0 1113076998#1 1113076998#2 107215079#4 370390350 542070647#0 542070647#1 542070647#2 542070647#3 359476590#0 359476590#1 1196514126#0 1196514126#1 1196514126#2 1196514126#3 161416663#0 161416663#1 1101945532 766406223#0 766406223#1 766406223#2 1109912029 760700374 107215083#0 107215083#1 107215083#2 107215083#3 107215083#4 107215083#5 654367782#0 654367782#1 654367780#0 654367780#1"/>
    </vehicle>
    <vehicle id="27" depart="27.00">
        <route edges="27007398#13 27007398#14 27007398#15 27007398#16 27007398#17 27007398#18 36853688#0 36853688#1 36853688#2 36853688#3 36853688#4 36853688#5 36853688#6 36853688#7 36853688#8 36853688#9 36853688#10 36853688#11 36853688#12 -112028496#7 -112028496#6 -112028496#5 -112028496#4 -112028496#3 -112028496#2 -112028496#1 -112028496#0 1112419802#4 1112419801#0 1112419801#1 1112419801#2 1112419801#3 1112419801#4 638541495#0 638541495#1 638541495#2 638541495#3 638541495#4 638541495#5 638541495#6 638541495#7 638541495#8 638541495#9 1278555476 172947338#0 172947338#1 172947338#2 172947338#3 172947338#4 172947338#5 464465211#0 464465211#1 464465211#2 464465211#3 464465211#4 464465211#5 464465211#6 464465222 544761382#0 544761382#1 544761382#2 1205167665 1205167664 544761380#0 544761380#1 1110192331 544761378#0 544761378#1 542070647#0 542070647#1 542070647#2 542070647#3 359476590#0 359476590#1 1196514126#0 1196514126#1 1196514126#2 1196514126#3 161416663#0 161416663#1 1101945532 1101945530#0 1101945530#1 1101945530#2 1373661996 46728567#0 46728567#1 46728567#2 46728567#3 46728567#4 46728567#5 46728567#6 46728567#7 46728567#8 46728567#9 46728567#10 -45308260#10 -45308260#9 -45308260#8 -45308260#7 -45308260#6 -45308260#5 -45308260#4 -45308260#3 -45308260#2 -45308260#1 -45308260#0 1356841809 23029710#0 23029710#1 23029710#2 23029710#3 23029710#4"/>
    </vehicle>
    <vehicle id="28" depart="28.00">
        <route edges="-370404416#3 -370404416#2 370404416#2 370404416#3 72099280#3 72099280#4 72099280#5 72099280#6 242172703 328758433#0 328758433#1 328758433#2 328758433#3 328758433#4 1150927563#0 1150927563#1 542070642 464465222 544761382#0 544761382#1 544761382#2 1205167665 1205167664 544761380#0 544761380#1 1110192331 544761378#0 544761378#1 542070647#0 542070647#1 542070647#2 542070647#3 1148395512 107215088#0 107215088#1 107215088#2 107215088#3 107215088#4 1148718165#0 1148718165#1 362900184 359476587#0 359476587#1 359476587#2 359476587#3 760700372#0 760700372#1 503401204#0 503401204#1 503401204#2 503401204#3 503401204#4 503401204#5 1148408385 1148408386#0 1148408386#1 363452629#0"/>
    </vehicle>
    <vehicle id="30" depart="30.00">
        <route edges="796846456#0 796846456#1 796846456#2 688192176 -484510040#10 -484510040#9 -484510040#8 -484510040#7 -484510040#6 -484510040#5 -484510040#4 -484510040#3 -484510040#2 -484510040#1 -484510040#0 1227534098#0 1227534098#1 1227534098#2 91890605#0 91890605#1 91890605#2 91890605#3 91890605#4 91890605#5 1332594978 36967442#0 36967442#1 36967442#2 36967442#3 36967442#4 36967442#5 36967442#6 36967442#7 1101271051 1278555476 1166322819#0 1166322819#1 1166322819#2 1166322819#3 1166322820#0 1166322820#1 38522039 1166322824 1166322823#0 1166322823#1 325833356#0 325833356#1 325833356#2 763293421 638541502#0 638541502#1 325833350#0 325833350#1 325833350#2 325833350#3 325833350#4 325833350#5 325833350#6 325833350#7 325833350#8 325833350#9 325833350#10 1015024219 1015024215 1015024218 27007398#0 27007398#1 27007398#2 27007398#3 27007398#4 27007398#5 27007398#6 27007398#7 27007398#8 27007398#9 27007398#10 27007398#11"/>
    </vehicle>
    <vehicle id="31" depart="31.00">
        <route edges="173470558#0 173470558#1 -173470558#1 -173470558#0 -112657837#1 -112657837#0 -1227541118 45308260#1 45308260#2 45308260#3 45308260#4 45308260#5 45308260#6 45308260#7 45308260#8 45308260#9 45308260#10 23029705#0 23029705#1 23029705#2 23029705#3 23029705#4 23029705#5 23029705#6 1297594197#0 1297594197#1 26283651#2 26283651#3 26283651#4 26283651#5 26283651#6 26283651#7 26283651#8 1124838026 1124838025#0 1124838025#1 1124838025#2 1124838025#3 1124838025#4 1124838025#5 1124838025#6 1124838025#7 766406224#0 766406224#1 766406224#2 766406224#3 323813903#0 323813903#1 323813903#2 323813903#3 323813903#4 323813903#5 1148395507 1148395510 1148395508 107215079#0 107215079#1 107215079#2 107215079#3 107215079#4 544761377#0 544761377#1 544761379 544761381 1110192330 1205167663 1205167666 544761383#0 544761383#1 542070645 1150927562#0 1150927562#1 1150927562#2 542070643#0 542070643#1 542070643#2 542070643#3 542070643#4 542070643#5 542070643#6 1332594978 36967442#0 36967442#1 36967442#2 36967442#3 36967442#4 36967442#5 36967442#6 36967442#7 1101271051 1278555476 1166322819#0 1166322819#1 1166322819#2 1166322819#3 1166322820#0 1166322820#1 38522039 1166322824 1166322823#0 1166322823#1 325833356#0"/>
    </vehicle>
    <vehicle id="32" depart="32.00">
        <route edges="48166762#15 48166762#16 48166762#17 48166762#18 48166762#19 48166762#20 -36332257#4 -36332257#3 -36332257#2 -36332257#1 -36332257#0 172903807#0 172903807#1 172903807#2 172903807#3 172903807#4 172903807#5 1125542419#3 1125542419#4 1125542419#5 1304119370#0 1304119370#1 1304119370#2 1304119370#3 1304119370#4 764406991#0 764406991#1 764406991#2 764406991#3 23029284#0 23029284#1 23029284#2 23029284#3 23029284#4 23029284#5 28126801#0 28126801#1 28126801#2 1183372579#0 1183372579#1 1183372579#2 37763921#0 37763921#1 37763921#2 37763921#3"/>
    </vehicle>
    <vehicle id="33" depart="33.00">
        <route edges="-603115725#1 -603115725#0 -603115724#1 -603115724#0 -484510040#1 -484510040#0 1227534098#0 1227534098#1 1227534098#2 91890605#0 91890605#1 91890605#2 91890605#3 91890605#4 91890605#5 1332594978 36967442#0 36967442#1 36967442#2 36967442#3 36967442#4 36967442#5 36967442#6 36967442#7 1101271051 1278555476 1166322819#0 1166322819#1 1166322819#2 1166322819#3 1166322820#0 1166322820#1 38522039 1166322824 1166322823#0 1166322823#1 325833356#0 325833356#1 325833356#2 763293421 638541502#0 638541502#1 325833350#0 325833350#1 325833350#2 325833350#3 325833350#4 325833350#5 325833350#6 325833350#7 325833350#8 325833350#9 325833350#10 1015024219 1015024215 1015024218 27007398#0 27007398#1 27007398#2 27007398#3 27007398#4 27007398#5 27007398#6 27007398#7 27007398#8 27007398#9 27007398#10 27007398#11 27007398#12 27007398#13 27007398#14 27007398#15 27007398#16 27007398#17 27007398#18 36853688#0 36853688#1 36853688#2 36853688#3 36853688#4 36853688#5 36853688#6 36853688#7 36853688#8 36853688#9 36853688#10 36853688#11 36853688#12 -112028496#7"/>
    </vehicle>
    <vehicle id="35" depart="35.00">
        <route edges="-484510040#1 -484510040#0 1227534098#0 1227534098#1 1227534098#2 484510039 484510041#0 484510041#1 484510041#2 484510041#3 484510041#4 484510041#5 72099280#0 72099280#1 72099280#2 72099280#3 72099280#4 72099280#5 72099280#6 242172703 1370353700 542070644#8 1158621923#0 1158621923#1 694323953#0 694323953#1 694323953#2"/>
    </vehicle>
    <vehicle id="36" depart="36.00">